228

C        7.531757        5.494927        5.736621
C       13.155779       12.120879        4.902273
C        0.986182        7.868921        5.726367
O       12.950743       13.336826        4.584426
O       14.139733       11.377799        4.549822
H        9.363715        3.360263        7.638574
C       13.761975        3.775229        5.736621
C        5.211721        5.332800        4.902273
C        3.835524       16.220360        5.726367
O        4.261198        4.547259        4.584426
O        5.363270        6.556468        4.549822
H       14.694670        6.429084        7.638574
C       12.136168       10.030606        5.736621
C       15.062399        1.847083        4.902273
C       -4.821706       14.512243        5.726367
O       16.217959        1.416676        4.584426
O       13.926897        1.366494        4.549822
H        9.371515        9.511415        7.638574
C        3.611543       13.805835       12.144820
C       -2.012479        7.179883       11.310473
C       10.157118       11.431841       12.134567
O       -1.807443        5.963936       10.992626
O       -2.996433        7.922963       10.958021
H        1.779585       15.940499        1.230375
C       -2.618675       15.525533       12.144820
C        5.931579       13.967962       11.310473
C        7.307776        3.080402       12.134567
O        6.882102       14.753502       10.992626
O        5.780030       12.744293       10.958021
H       -3.551370       12.871678        1.230375
C       -0.992868        9.270156       12.144820
C       -3.919099       17.453678       11.310473
C       15.965006        4.788519       12.134567
O       -5.074659       17.884086       10.992626
O       -2.783597       17.934268       10.958021
H        1.771785        9.789346        1.230375
C        0.992868        9.270156        0.671579
C        3.919099       17.453678        1.505927
C        6.321594        4.788519        0.681833
O        5.074659       17.884086        1.823774
O        2.783597       17.934268        1.858378
H       -1.771785        9.789346       11.586025
C       -3.611543       13.805835        0.671579
C        2.012479        7.179883        1.505927
C       12.129482       11.431841        0.681833
O        1.807443        5.963936        1.823774
O        2.996433        7.922963        1.858378
H       -1.779585       15.940499       11.586025
C        2.618675       15.525533        0.671579
C       -5.931579       13.967962        1.505927
C       14.978824        3.080402        0.681833
O       -6.882102       14.753502        1.823774
O       -5.780030       12.744293        1.858378
H        3.551370       12.871678       11.586025
C       10.150432       10.030606        7.079779
C        7.224201        1.847083        7.914127
C        4.821706       14.512243        7.090032
O        6.068641        1.416676        8.231974
O        8.359703        1.366494        8.266578
H       12.915085        9.511415        5.177825
C       14.754843        5.494927        7.079779
C        9.130821       12.120879        7.914127
C       -0.986182        7.868921        7.090032
O        9.335857       13.336826        8.231974
O        8.146867       11.377799        8.266578
H       12.922885        3.360263        5.177825
C        8.524625        3.775229        7.079779
C       17.074879        5.332800        7.914127
C       -3.835524       16.220360        7.090032
O       18.025402        4.547259        8.231974
O       16.923330        6.556468        8.266578
H        7.591930        6.429084        5.177825
C        3.611543       13.805835        7.079779
C       -2.012479        7.179883        7.914127
C       10.157118       11.431841        7.090032
O       -1.807443        5.963936        8.231974
O       -2.996433        7.922963        8.266578
H        1.779585       15.940499        5.177825
C       -2.618675       15.525533        7.079779
C        5.931579       13.967962        7.914127
C        7.307776        3.080402        7.090032
O        6.882102       14.753502        8.231974
O        5.780030       12.744293        8.266578
H       -3.551370       12.871678        5.177825
C       -0.992868        9.270156        7.079779
C       -3.919099       17.453678        7.914127
C       15.965006        4.788519        7.090032
O       -5.074659       17.884086        8.231974
O       -2.783597       17.934268        8.266578
H        1.771785        9.789346        5.177825
C        7.531757        5.494927        0.671579
C       13.155779       12.120879        1.505927
C        0.986182        7.868921        0.681833
O       12.950743       13.336826        1.823774
O       14.139733       11.377799        1.858378
H        9.363715        3.360263       11.586025
C       13.761975        3.775229        0.671579
C        5.211721        5.332800        1.505927
C        3.835524       16.220360        0.681833
O        4.261198        4.547259        1.823774
O        5.363270        6.556468        1.858378
H       14.694670        6.429084       11.586025
C       12.136168       10.030606        0.671579
C       15.062399        1.847083        1.505927
C       -4.821706       14.512243        0.681833
O       16.217959        1.416676        1.823774
O       13.926897        1.366494        1.858378
H        9.371515        9.511415       11.586025
C       10.150432       10.030606       12.144820
C        7.224201        1.847083       11.310473
C        4.821706       14.512243       12.134567
O        6.068641        1.416676       10.992626
O        8.359703        1.366494       10.958021
H       12.915085        9.511415        1.230375
C       14.754843        5.494927       12.144820
C        9.130821       12.120879       11.310473
C       -0.986182        7.868921       12.134567
O        9.335857       13.336826       10.992626
O        8.146867       11.377799       10.958021
H       12.922885        3.360263        1.230375
C        8.524625        3.775229       12.144820
C       17.074879        5.332800       11.310473
C       -3.835524       16.220360       12.134567
O       18.025402        4.547259       10.992626
O       16.923330        6.556468       10.958021
H        7.591930        6.429084        1.230375
C        0.992868        9.270156        5.736621
C        3.919099       17.453678        4.902273
C        6.321594        4.788519        5.726367
O        5.074659       17.884086        4.584426
O        2.783597       17.934268        4.549822
H       -1.771785        9.789346        7.638574
C       -3.611543       13.805835        5.736621
C        2.012479        7.179883        4.902273
C       12.129482       11.431841        5.726367
O        1.807443        5.963936        4.584426
O        2.996433        7.922963        4.549822
H       -1.779585       15.940499        7.638574
C        2.618675       15.525533        5.736621
C       -5.931579       13.967962        4.902273
C       14.978824        3.080402        5.726367
O       -6.882102       14.753502        4.584426
O       -5.780030       12.744293        4.549822
H        3.551370       12.871678        7.638574
Cu        4.224425        7.316919        3.204100
Cu        2.994205        5.186115        3.204100
Cu       13.837750        0.000000        3.204100
Cu       16.298191        0.000000        3.204100
Cu       -6.918875       11.983843        3.204100
Cu       -8.149095       14.114647        3.204100
Cu        6.918875       11.983843        9.612300
Cu        8.149095       14.114647        9.612300
Cu        8.448850        0.000000        9.612300
Cu        5.988410        0.000000        9.612300
Cu       -4.224425        7.316919        9.612300
Cu       -2.994205        5.186115        9.612300
C       -0.000000       11.460793        0.000000
C       -0.000000        9.988144        0.000000
C       -0.000000        7.154792        0.000000
H       -0.000000        6.066229        0.000000
C        1.217963       13.570366        0.000000
C        2.493314       14.306690        0.000000
C        4.947068       15.723366        0.000000
H        5.889791       16.267647        0.000000
C       -1.217963       13.570366        0.000000
C       -2.493314       14.306690        0.000000
C       -4.947068       15.723366        0.000000
H       -5.889791       16.267647        0.000000
C       11.143300        7.839969        6.408200
C       11.143300        9.312618        6.408200
C       11.143300       12.145969        6.408200
H       11.143300       13.234532        6.408200
C        9.925337        5.730396        6.408200
C        8.649986        4.994072        6.408200
C        6.196232        3.577396        6.408200
H        5.253509        3.033115        6.408200
C       12.361263        5.730396        6.408200
C       13.636614        4.994072        6.408200
C       16.090368        3.577396        6.408200
H       17.033091        3.033115        6.408200
C       11.143300        7.839969        0.000000
C       11.143300        9.312618        0.000000
C       11.143300       12.145969        0.000000
H       11.143300       13.234532        0.000000
C        9.925337        5.730396        0.000000
C        8.649986        4.994072        0.000000
C        6.196232        3.577396        0.000000
H        5.253509        3.033115        0.000000
C       12.361263        5.730396        0.000000
C       13.636614        4.994072        0.000000
C       16.090368        3.577396        0.000000
H       17.033091        3.033115        0.000000
C       -0.000000       11.460793        6.408200
C       -0.000000        9.988144        6.408200
C       -0.000000        7.154792        6.408200
H       -0.000000        6.066229        6.408200
C        1.217963       13.570366        6.408200
C        2.493314       14.306690        6.408200
C        4.947068       15.723366        6.408200
H        5.889791       16.267647        6.408200
C       -1.217963       13.570366        6.408200
C       -2.493314       14.306690        6.408200
C       -4.947068       15.723366        6.408200
H       -5.889791       16.267647        6.408200
C        1.205705       12.171060        0.000000
H        2.151772       11.624849        0.000000
C       -0.000000       14.259403        0.000000
H       -0.000000       15.351826        0.000000
C       -1.205705       12.171060        0.000000
H       -2.151772       11.624849        0.000000
C        9.937595        7.129702        6.408200
H        8.991528        7.675913        6.408200
C       11.143300        5.041359        6.408200
H       11.143300        3.948935        6.408200
C       12.349005        7.129702        6.408200
H       13.295072        7.675913        6.408200
C        9.937595        7.129702        0.000000
H        8.991528        7.675913        0.000000
C       11.143300        5.041359        0.000000
H       11.143300        3.948935        0.000000
C       12.349005        7.129702        0.000000
H       13.295072        7.675913        0.000000
C        1.205705       12.171060        6.408200
H        2.151772       11.624849        6.408200
C       -0.000000       14.259403        6.408200
H       -0.000000       15.351826        6.408200
C       -1.205705       12.171060        6.408200
H       -2.151772       11.624849        6.408200
