8
1,1,1-Trichloroethane
    C        0.000000    0.000000    0.252900
    C        0.000000    0.000000    1.772961
   Cl        0.000000    1.697295   -0.364072
   Cl        1.469900   -0.848647   -0.364072
   Cl       -1.469900   -0.848647   -0.364072
    H        0.000000   -1.030162    2.137497
    H        0.892146    0.515081    2.137497
    H       -0.892146    0.515081    2.137497
