12
1,4-Benzoquinone
       C        0.000000    0.000000    1.445285
       C        0.000000    0.000000   -1.445285
       C        0.000000    1.269144    0.671532
       C        0.000000   -1.269144    0.671532
       C        0.000000    1.269144   -0.671532
       C        0.000000   -1.269144   -0.671532
       O        0.000000    0.000000    2.670223
       O        0.000000    0.000000   -2.670223
       H        0.000000    2.182717    1.259654
       H        0.000000   -2.182717    1.259654
       H        0.000000    2.182717   -1.259654
       H        0.000000   -2.182717   -1.259654
