10
1,4-Pyrazine
   N         0.000000    0.000000    1.409502
   N         0.000000    0.000000   -1.409502
   C         0.000000    1.133170    0.698425
   C         0.000000   -1.133170    0.698425
   C         0.000000    1.133170   -0.698425
   C         0.000000   -1.133170   -0.698425
   H         0.000000    2.067277    1.257022
   H         0.000000   -2.067277    1.257022
   H         0.000000    2.067277   -1.257022
   H         0.000000   -2.067277   -1.257022
