12
1-Chloro-2-methyl-1-propene
   C         0.000000    0.782003    0.000000
   C         0.805851   -0.283297    0.000000 
   C         2.300289   -0.066140    0.000000 
   C         0.341629   -1.713745    0.000000 
  Cl        -1.756079    0.719815    0.000000 
   H         0.365172    1.802206    0.000000 
   H         2.565387    0.995602    0.000000 
   H         2.760769   -0.532326    0.881454 
   H         2.760769   -0.532326   -0.881454 
   H        -0.746590   -1.798408    0.000000 
   H         0.730608   -2.242268   -0.880708 
   H         0.730608   -2.242268    0.880708 
