10
2,3-Dichloro-2,3-dehydrobutyrolactone
    C            1.483706    0.650021    0.000000
    C            0.000000    0.485299    0.000000
    C           -0.281133   -0.823150    0.000000
    C            1.002931   -1.604087    0.000000
    O            2.033080   -0.610585    0.000000
    O            2.136995    1.655543    0.000000
   Cl           -1.060808    1.827279    0.000000 
   Cl           -1.810295   -1.600302    0.000000 
    H            1.107555   -2.233386    0.891463 
    H            1.107555   -2.233386   -0.891463 
