10
2-Butyne
         C        0.000000    0.000000    0.604587
         C        0.000000    0.000000   -0.604587
         C        0.000000    0.000000    2.066081
         C        0.000000    0.000000   -2.066081
         H        0.000000    1.021502    2.466253
         H       -0.884646   -0.510751    2.466253
         H        0.884646   -0.510751    2.466253
         H        0.000000    1.021502   -2.466253
         H        0.884646   -0.510751   -2.466253
         H       -0.884646   -0.510751   -2.466253
