9
2-Chloropropene
      C          -1.028006    1.312305    0.000000 
      C           0.000000    0.467586    0.000000 
      C           1.454975    0.826682    0.000000 
     Cl          -0.303089   -1.279279    0.000000 
      H          -2.058440    0.976034    0.000000 
      H          -0.843398    2.382702    0.000000
      H           1.573709    1.914523    0.000000
      H           1.959410    0.417525    0.882999
      H           1.959410    0.417525   -0.882999
