11
2-Chloropropane
    Cl        -0.898751    1.028619    0.000000 
     C         0.575598   -0.074850    0.000000 
     H         1.421071    0.617785    0.000000 
     C         0.575598   -0.908818    1.274214 
     C         0.575598   -0.908818   -1.274214 
     H         1.479547   -1.530466    1.301051 
     H         0.566133   -0.275288    2.165350 
     H        -0.297214   -1.568943    1.308046 
     H         1.479547   -1.530466   -1.301051 
     H         0.566133   -0.275288   -2.165350 
     H        -0.297214   -1.568943   -1.308046
