9
2-Chloropropanitrile
  C         0.103333    1.747224   -0.180673
  C        -0.027447    0.355655    0.440290
  C        -1.294879   -0.289839    0.092676
  N        -2.316433   -0.770761   -0.175693
 Cl         1.357656   -0.715137   -0.084228
  H         1.054193    2.195486    0.117588
  H         0.061154    1.689578   -1.270936
  H        -0.716738    2.381941    0.172106
  H         0.050219    0.407404    1.529208
