15
2-Methyl-2-cyanopropane
      N          0.000000    0.000000    2.360404
      C          0.000000    0.000000    1.199078
      C          0.000000    0.000000   -0.279922
      C          0.000000    1.464540   -0.772873
      C          1.268328   -0.732270   -0.772873
      C         -1.268328   -0.732270   -0.772873
      H          0.000000    1.481013   -1.868679
      H         -0.887101    2.000032   -0.420003
      H          0.887101    2.000032   -0.420003
      H          1.282595   -0.740506   -1.868679
      H          2.175629   -0.231764   -0.420003
      H          1.288528   -1.768268   -0.420003
      H         -1.282595   -0.740506   -1.868679
      H         -1.288528   -1.768268   -0.420003
      H         -2.175629   -0.231764   -0.420003
