15
2-Methyl-2-butene
     C        -1.504986    0.503259    0.000000
     C         0.000000    0.452328    0.000000
     C         0.738514   -0.676710    0.000000
     C         0.260062   -2.100114    0.000000
     C         0.664360    1.805235    0.000000
     H        -1.969640   -0.484314    0.000000
     H        -1.866259    1.048807    0.880779
     H        -1.866259    1.048807   -0.880779
     H         1.823975   -0.559306    0.000000
     H        -0.828685   -2.181728    0.000000
     H         0.636596   -2.633647   -0.880790
     H         0.636596   -2.633647    0.880790
     H         1.755110    1.717707    0.000000
     H         0.365433    2.386664   -0.881359
     H         0.365433    2.386664    0.881359
