18
3,3-Dimethyl-1-butene
     C         -0.126402   -2.206522    0.000000
     C          0.568529   -1.068298    0.000000
     C          0.032126    0.351661    0.000000
     C         -1.504307    0.399978    0.000000
     C          0.568529    1.072460    1.258636
     C          0.568529    1.072460   -1.258636
     H         -1.212571   -2.231045    0.000000
     H          0.374913   -3.170942    0.000000
     H          1.659519   -1.129164    0.000000
     H         -1.851335    1.439814    0.000000 
     H         -1.920372   -0.091404   -0.886934 
     H         -1.920372   -0.091404    0.886934 
     H          0.251191    2.122630    1.268207 
     H          0.198121    0.595269    2.172972 
     H          1.664781    1.053957    1.290497 
     H          0.251191    2.122630   -1.268207 
     H          0.198121    0.595269   -2.172972 
     H          1.664781    1.053957   -1.290497 
