9
3-Butyn-2-one
  C        1.494518    0.740794    0.000000
  C        0.000000    0.495475    0.000000
  O       -0.823865    1.392709    0.000000
  C       -0.412035   -0.904800    0.000000
  C       -0.741002   -2.068753    0.000000
  H        1.686264    1.815795    0.000000
  H        1.953948    0.278026    0.881765
  H        1.953948    0.278026   -0.881765
  H       -1.052120   -3.089820    0.000000
