7
Acetyl chloride
    C         1.491652    0.732395    0.000000
    C         0.000000    0.543473    0.000000
    O        -0.844467    1.377818    0.000000
   Cl        -0.456476   -1.234264    0.000000
    H         1.716628    1.800991    0.000000
    H         1.924643    0.251872    0.882650
    H         1.924643    0.251872   -0.882650
