9
Allyl chloride
    C          2.231871   -0.207434   -0.307789 
    C          1.141202   -0.117415    0.453960 
    C         -0.026832    0.749435    0.121252 
   Cl         -1.553218   -0.242837   -0.108246 
    H          3.076133   -0.827999   -0.021647
    H          2.323013    0.338834   -1.244145
    H          1.068405   -0.681732    1.382108
    H         -0.264517    1.448690    0.926319
    H          0.124226    1.302924   -0.806986
