16
Anisole (methoxybenzene)
    C           0.000000    0.529634    0.000000
    C          -1.373325    0.243584    0.000000
    C          -1.808594   -1.076863    0.000000
    C          -0.886918   -2.129663    0.000000
    C           0.475571   -1.839467    0.000000
    C           0.929963   -0.516863    0.000000
    O           0.326056    1.856864    0.000000
    C           1.698946    2.208934    0.000000
    H          -2.073871    1.072961    0.000000
    H          -2.875351   -1.285756    0.000000
    H          -1.228966   -3.160473    0.000000
    H           1.203680   -2.646763    0.000000
    H           1.995512   -0.316998    0.000000
    H           1.728752    3.300252    0.000000
    H           2.213967    1.833044    0.894427
    H           2.213967    1.833044   -0.894427
