12
Benzene
      C         0.000000    1.396612    0.000000
      C         1.209501    0.698306    0.000000
      C        -1.209501    0.698306    0.000000
      C         1.209501   -0.698306    0.000000
      C        -1.209501   -0.698306    0.000000
      C         0.000000   -1.396612    0.000000
      H         0.000000    2.483624    0.000000
      H         2.150882    1.241812    0.000000
      H        -2.150882    1.241812    0.000000
      H         2.150882   -1.241812    0.000000
      H        -2.150882   -1.241812    0.000000
      H         0.000000   -2.483624    0.000000
