10
Bicyclobutane
    C         0.747098    0.000000   -0.315829
    C        -0.747098    0.000000   -0.315829
    C         0.000000    1.137684    0.312182
    C         0.000000   -1.137684    0.312182
    H         1.431260    0.000000   -1.152990
    H        -1.431260    0.000000   -1.152990
    H         0.000000    2.085037   -0.226261
    H         0.000000    1.247754    1.401136
    H         0.000000   -2.085037   -0.226261
    H         0.000000   -1.247754    1.401136
