11
Chlorodimethylsilane ((CH3)2SiHCl)
 Si          0.561901   -0.026241    0.000000 
 Cl         -1.160166    1.175665    0.000000 
  H          1.715024    0.911957    0.000000 
  C          0.561901   -1.067678    1.562797 
  C          0.561901   -1.067678   -1.562797 
  H         -0.307252   -1.733832    1.595123 
  H          1.466416   -1.687384    1.606221 
  H          0.540026   -0.438156    2.458438 
  H         -0.307252   -1.733832   -1.595123 
  H          1.466416   -1.687384   -1.606221 
  H          0.540026   -0.438156   -2.458438
