11
Cyclobutanone
     O       0.000000    0.000000    1.883380
     C       0.000000    0.000000    0.680062
     C       0.000000    1.111393   -0.385557
     C       0.000000   -1.111393   -0.385557
     C       0.000000    0.000000   -1.480192
     H      -0.887021    1.754218   -0.350761
     H       0.887021    1.754218   -0.350761
     H      -0.887021   -1.754218   -0.350761
     H       0.887021   -1.754218   -0.350761
     H      -0.887077    0.000000   -2.118265
     H       0.887077    0.000000   -2.118265
