15
Cyclopentane
   C        0.000000    0.000000    1.308322
   C        0.000000    1.243115    0.371790
   C        0.000000   -1.243115    0.371790
   C       -0.328308    0.694836   -1.031133
   C        0.328308   -0.694836   -1.031133
   H        0.877601    0.006551    1.963936
   H       -0.877601   -0.006551    1.963936
   H       -0.702811    2.017236    0.698224
   H        0.995910    1.703363    0.359696
   H        0.702811   -2.017236    0.698224
   H       -0.995910   -1.703363    0.359696
   H       -1.415293    0.589197   -1.152471
   H        0.027837    1.344896   -1.838294
   H        1.415293   -0.589197   -1.152471
   H       -0.027837   -1.344896   -1.838294
