18
Cyclohexane, chair
     C       -1.270575    0.733567    0.229404
     C        0.000000    1.467134   -0.229404
     C        0.000000   -1.467134    0.229404
     C        1.270575   -0.733567   -0.229404
     C        1.270575    0.733567    0.229404
     C       -1.270575   -0.733567   -0.229404
     H       -1.329754    0.767734    1.327713
     H        0.000000    1.535467   -1.327713
     H        0.000000   -1.535467    1.327713
     H        1.329754   -0.767734   -1.327713
     H        1.329754    0.767734    1.327713
     H       -1.329754   -0.767734   -1.327713
     H       -2.163615    1.249164   -0.146953
     H        0.000000    2.498328    0.146953
     H        0.000000   -2.498328   -0.146953
     H        2.163615   -1.249164    0.146953
     H        2.163615    1.249164   -0.146953
     H       -2.163615   -1.249164    0.146953
