12
Fluorobenzene
     F       0.000000    0.000000    2.282591
     C       0.000000    0.000000    0.931458
     C       0.000000    1.217551    0.260430
     C       0.000000   -1.217551    0.260430 
     C       0.000000    1.208664   -1.135566 
     C       0.000000   -1.208664   -1.135566 
     C       0.000000    0.000000   -1.835837 
     H       0.000000    2.142010    0.828608 
     H       0.000000   -2.142010    0.828608
     H       0.000000    2.151613   -1.675360
     H       0.000000   -2.151613   -1.675360
     H       0.000000    0.000000   -2.921902
