11
Furfural
     O          1.255220   -0.270520    0.000000
     C          0.000000    0.290865    0.000000
     C         -0.949959   -0.700734    0.000000 
     C         -0.245069   -1.936081    0.000000 
     C          1.084695   -1.611963    0.000000 
     C         -0.083280    1.743732    0.000000 
     O         -1.136139    2.358323    0.000000 
     H         -2.018777   -0.541423    0.000000 
     H         -0.662083   -2.933351    0.000000 
     H          1.989657   -2.201333    0.000000 
     H          0.900230    2.258757    0.000000 
