16
Indole
   N         -1.095541    1.556403    0.000000
   C         -2.252962    0.798767    0.000000
   C         -1.929275   -0.532001    0.000000
   C         -0.494853   -0.618831    0.000000
   C          0.000000    0.716046    0.000000
   C          1.368403    1.007466    0.000000
   C          2.252451   -0.064820    0.000000
   C          1.786253   -1.396219    0.000000
   C          0.427220   -1.680760    0.000000
   H         -1.058972    2.563541    0.000000
   H         -3.220818    1.280732    0.000000
   H         -2.629560   -1.356029    0.000000
   H          1.728163    2.033401    0.000000
   H          3.322197    0.125934    0.000000
   H          2.506400   -2.210018    0.000000
   H          0.077952   -2.710281    0.000000
