6
Methanol
      C          -0.046877    0.660852    0.000000
      O          -0.046877   -0.757676    0.000000
      H          -1.094235    0.975025    0.000000
      H           0.437097    1.086124    0.893263
      H           0.437097    1.086124   -0.893263
      H           0.876322   -1.050981    0.000000
