11
Methylthiazole
    N          1.243016    0.341317    0.000000
    C          1.126693   -0.951789    0.000000
   S         -0.515107   -1.554735    0.000000 
    C         -1.062632    0.091724    0.000000 
    C          0.000000    0.952989    0.000000 
    C         -0.073613    2.451751    0.000000 
    H          1.966106   -1.637604    0.000000 
    H         -2.117299    0.329584    0.000000 
    H         -1.110932    2.798499    0.000000 
    H          0.430025    2.864007    0.882018 
    H          0.430025    2.864007   -0.882018 
