11
Methyl acetate Z
 O        -1.180545    0.763271    0.000000 
 C         0.000000    0.493692    0.000000 
 C         1.133611    1.492980    0.000000 
 O         0.476640   -0.773648    0.000000 
 C        -0.523832   -1.804924    0.000000 
 H         0.725663    2.504206    0.000000 
 H         1.765816    1.346354    0.881935 
 H         1.765816    1.346354   -0.881935 
 H         0.026177   -2.746545    0.000000 
 H        -1.155453   -1.728920    0.889230 
 H        -1.155453   -1.728920   -0.889230 
