12
N,N-Dimethylformamide
     O            0.209332   -1.943328    0.000000 
     C            0.697413   -0.825510    0.000000 
     N            0.000000    0.348939    0.000000 
     C           -1.452740    0.332718    0.000000 
     C            0.665766    1.635559    0.000000 
     H            1.792205   -0.653772    0.000000 
     H           -1.776611   -0.708576    0.000000 
     H           -1.846675    0.839936    0.890429 
     H           -1.846675    0.839936   -0.890429 
     H            1.749650    1.488103    0.000000 
     H            0.395408    2.220911   -0.889314 
     H            0.395408    2.220911    0.889314 
