20
N,N-Dimethylaniline
    N        -0.167458    1.572334    0.000000
    C        -0.070668    0.181715    0.000000
    C        -0.025790   -0.551448    1.207651
    C        -0.025790   -0.551448   -1.207651
    C         0.035991   -1.942853    1.198331
    C         0.035991   -1.942853   -1.198331
    C         0.065384   -2.656690    0.000000
    C         0.035991    2.294633   -1.243492
    C         0.035991    2.294633    1.243492
    H        -0.038849   -0.037254    2.161286
    H        -0.038849   -0.037254   -2.161286
    H         0.066514   -2.471850    2.147976
    H         0.066514   -2.471850   -2.147976
    H         0.116105   -3.741482    0.000000
    H        -0.089697    3.363803   -1.059653
    H        -0.089697    3.363803    1.059653
    H         1.036798    2.134426   -1.677891
    H         1.036798    2.134426    1.677891
    H        -0.708017    2.001381   -1.993494
    H        -0.708017    2.001381    1.993494
