17
N-Methylpyrrolidine
   C       0.337276    2.099453    0.000000
   N       0.446990    0.654778    0.000000
   C      -0.163353    0.003840    1.157016
   C      -0.163353    0.003840   -1.157016
   C      -0.163353   -1.489826    0.778520
   C      -0.163353   -1.489826   -0.778520
   H      -0.713743    2.454949    0.000000
   H       0.833530    2.510891   -0.886306
   H       0.833530    2.510891    0.886306
   H       0.405145    0.224036    2.068209
   H      -1.202898    0.357961    1.320962
   H       0.405145    0.224036   -2.068209
   H      -1.202898    0.357961   -1.320962
   H       0.734195   -1.983997    1.162545
   H      -1.029164   -2.010529    1.199099
   H       0.734195   -1.983997   -1.162545
   H      -1.029164   -2.010529   -1.199099
