7
Nitromethane
     H        -1.049444   -1.632741    0.000000
     C        -0.001150   -1.325163    0.000000
     N         0.012087    0.173779    0.000000
     O        -0.001150    0.731347    1.092620
     O        -0.001150    0.731347   -1.092620
     H         0.495066   -1.667146   -0.906507
     H         0.495066   -1.667146    0.906507
