10
Nitroethane
     C         -0.249330   -1.864209    0.000000 
     C          0.705386   -0.686275    0.000000 
     N          0.000000    0.656107    0.000000 
     O         -1.226169    0.671514    0.000000 
     O          0.727211    1.644331    0.000000 
     H          0.334294   -2.791226    0.000000 
     H         -0.889932   -1.856681    0.885198 
     H         -0.889932   -1.856681   -0.885198 
     H          1.350450   -0.656009   -0.882079 
     H          1.350450   -0.656009    0.882079 
