15
Norbornadiene
       C         0.000000    0.000000    1.355167
       C         0.000000    1.122368    0.271791
       C         0.000000   -1.122368    0.271791
       C         1.245986    0.667933   -0.520792
       C         1.245986   -0.667933   -0.520792
       C        -1.245986    0.667933   -0.520792
       C        -1.245986   -0.667933   -0.520792
       H         0.899910    0.000000    1.979632
       H        -0.899910    0.000000    1.979632
       H         0.000000    2.159751    0.612341
       H         0.000000   -2.159751    0.612341
       H         1.937013    1.338860   -1.019357
       H         1.937013   -1.338860   -1.019357
       H        -1.937013    1.338860   -1.019357
       H        -1.937013   -1.338860   -1.019357
