16
t-Butylacetylene
      C        0.299144    0.000020    0.000000
      C       -1.174913    0.000162    0.000000
      C       -2.383181    0.000246    0.000000
      C        0.808400    1.460302    0.000000
      C        0.808400   -0.730286    1.264506
      C        0.808400   -0.730286   -1.264506
      H       -3.449350    0.000284    0.000000
      H        1.904911    1.475745    0.000000
      H        0.456098    1.998231   -0.886296
      H        0.456098    1.998231    0.886296
      H        1.904875   -0.739966    1.276783
      H        0.457933   -0.230491    2.173519
      H        0.454561   -1.766265    1.287910
      H        1.904875   -0.739966   -1.276783
      H        0.454561   -1.766265   -1.287910
      H        0.457933   -0.230491   -2.173519
