14
t-Butyl chloride
      Cl        0.000000    0.000000    1.493682
       C        0.000000    0.000000   -0.370295
       C        0.000000    1.461637   -0.817414
       C        1.265815   -0.730818   -0.817414
       C       -1.265815   -0.730818   -0.817414
       H        0.000000    1.505446   -1.914212
       H       -0.887764    1.986353   -0.452457
       H        0.887764    1.986353   -0.452457
       H        1.303755   -0.752723   -1.914212
       H        2.164115   -0.224350   -0.452457
       H        1.276351   -1.762003   -0.452457
       H       -1.303755   -0.752723   -1.914212
       H       -1.276351   -1.762003   -0.452457
       H       -2.164115   -0.224350   -0.452457
