9
Thiophene
    S          0.000000    0.000000    1.199664
     C          0.000000    1.243517   -0.011594
     C          0.000000   -1.243517   -0.011594
     C          0.000000    0.715026   -1.272671
     C          0.000000   -0.715026   -1.272671
     H          0.000000    2.284833    0.280966
     H          0.000000   -2.284833    0.280966
     H          0.000000    1.320575   -2.172683
     H          0.000000   -1.320575   -2.172683
