232
 generated by VMD
 O         0.362322        -4.33666         1.47307
 O         0.270228        -4.78598         4.21874
 O          1.65391        -1.59018        -1.22525
 O          3.21675        -4.78162         1.27112
 O          4.56562         3.07863        -0.44461
 O          -1.4164        0.294997         4.04699
 O          -1.7856          4.8349          -1.951
 O          2.54145        -3.47021         4.00423
 O         -4.27532        -4.12087         2.47402
 O          -4.3604       -0.661084        -2.36621
 O          2.67203         2.40558         3.00608
 O          3.42528        0.656047        -1.32639
 O         -1.04221       -0.783573         1.28041
 O          2.88823        -4.22048        -1.40094
 O         0.129572        -1.43023        -3.47439
 O          4.10805         2.64492        -4.52619
 O         0.712026         3.80412        -1.39449
 O          0.39317          2.3493         4.37087
 O         -3.28053         2.18365        -4.80201
 O         -3.46528         3.36266         1.27041
 O          0.34413         3.02756         1.12451
 O          4.64116       -0.596057         4.93912
 O           -1.506        -3.43875        -4.03647
 O         -4.29608        -1.37192        0.439684
 O         -1.81666         1.57325        0.142455
 O         -3.96099        -3.05833        -4.75817
 O          1.58324       -0.791518         1.88766
 O         -2.21719         1.57542          -2.483
 O          1.73589         1.35206        -3.34576
 O          4.87274        0.676442          2.3781
 O          3.83424        -4.54368        -4.08314
 O         -2.27196        -3.65045        0.711584
 O          1.95194        -1.11545          4.5358
 H         0.148449        -4.37748         2.46324
 H        -0.518985        -4.02174         1.03108
 H        -0.482999        -4.41126         4.84227
 H          0.22158        -5.79513         4.30287
 H          2.11129        -2.51355        -1.12782
 H          2.34075       -0.836224        -1.18804
 H           2.3652        -4.56203         1.66469
 H          3.33144        -5.77269          1.3222
 H          4.23429          2.1621        -0.65615
 H          4.07626         3.72152        -1.11872
 H         -1.13856       -0.492816         4.60484
 H         -1.42626       -0.041983         3.12063
 H        -0.830654         4.51037        -1.74736
 H         -2.33641          4.1016        -2.30063
 H          3.30772        -3.77534         4.77968
 H          1.75048        -4.01186         4.29849
 H         -5.22857        -4.12145         2.19987
 H         -4.26151         -3.8758         3.44241
 H         -4.42911       -0.706982        -3.34889
 H         -3.63727        0.017676        -2.18665
 H           3.2852         1.59165         2.79652
 H          3.14523         2.76101         3.78043
 H          4.25338        0.221459        -1.73071
 H          2.95988         1.11236        -2.08393
 H         -1.61461        -1.55238         1.03528
 H         -1.32881       -0.001301        0.714806
 H          3.08379        -4.30753       -0.395056
 H          1.97798        -4.70176        -1.61661
 H         0.702894         -1.1715        -4.25501
 H         0.724738        -1.44898        -2.62289
 H          5.01651         2.28529        -4.45755
 H          3.45822         2.06847        -4.04219
 H         0.844696         3.46941        -0.41112
 H          0.97938         3.13823        -2.08484
 H          1.20392         2.35246         3.72838
 H        -0.254676         1.66013         4.08916
 H         -2.94617         1.38737        -5.30464
 H         -2.79352         2.12547        -3.93914
 H         -3.61604         3.86121         2.14355
 H         -4.29689          3.5684        0.739266
 H          1.09041         2.65663         1.71432
 H         0.163992         4.01325         1.42165
 H           4.9071       -0.125594         4.13972
 H          5.01781        -1.52454         4.78375
 H         -1.61204        -3.99268        -3.17847
 H         -1.09437        -2.63136        -3.69499
 H         -4.21247        -1.60143        -0.49945
 H         -4.10549        -2.16138        0.955889
 H          -2.6266         2.06657        0.578926
 H        -0.982125          2.1188        0.427439
 H         -4.47142        -3.71288        -4.19923
 H         -2.94334        -3.12538        -4.55072
 H          2.33629        -1.39141         1.59023
 H         0.715817         -1.0538         1.39632
 H         -1.51319        0.920302        -2.70177
 H         -2.11721         1.71848        -1.44958
 H          1.29416        0.446164        -3.27378
 H          1.23554         1.77344          -4.158
 H          5.53372          1.3637         2.10005
 H          5.04296       -0.161704         1.82778
 H          3.50911        -4.52031        -3.10272
 H          4.01117        -5.52545        -4.21492
 H         -2.91953        -3.89382         1.42665
 H         -2.26226        -4.37291        0.033723
 H          2.38615        -2.39348         4.25841
 H          2.79365       -0.678817           4.767
 H          1.80954       -0.833242         3.59157
 X         -2.37211        -3.37028        0.580094
 X          1.51405        -1.58084        -1.57247
 X         0.446341        -1.42209        -3.06811
 X         -1.86252         1.62654       -0.224485
 X          1.16064       -0.962152         1.63567
 X         0.342992        -4.70223         1.41784
 X          4.83088        -1.09058         4.83222
 X         -1.94476        -3.68323        0.847175
 X         -4.20484         -3.4133        -4.43365
 X          2.75016        -4.68793         1.49526
 X         -4.65841       -0.484454        -2.26423
 X         0.936912         4.07455        -1.44687
 X         -4.05806        -1.17401        0.507046
 X         0.789004         2.33284         4.02474
 X          4.79671       -0.351371         4.50434
 X          2.38665       -0.867189         4.65923
 X          2.33853         2.30987         3.12637
 X          4.95942        0.592129         2.70012
 X          4.00904         2.61956        -4.85161
 X         -4.19286         -4.4414         2.46047
 X         -3.47712         3.00335         1.31676
 X         -1.15403        0.523528         4.06495
 X          2.40429         -4.4749         -1.4891
 X           3.6389        -4.53594        -3.58727
 X         -4.00556        -3.19867        -5.07696
 X         -2.06755         4.41019        -2.14672
 X          2.70709         2.61432         2.75187
 X          3.46999        -4.64709         1.46668
 X         0.064283         1.99065         4.19897
 X          4.28762       -0.620266         4.91687
 X          3.19697        0.901907        -1.75181
 X           2.8975        -3.59992         4.34135
 X         0.253718         3.49974         1.30628
 X          1.48607          1.5573        -3.75906
 X          4.87938         3.10042       -0.514363
 X        -0.702522       -0.867754         1.21616
 X          0.54209         2.22504         4.68907
 X           2.0816         -1.4962         4.47703
 X          1.92358        -2.06626        -1.17643
 X         0.597162        -4.67001         4.33991
 X        -0.088759        -4.16096         1.25194
 X         0.026865        -1.72982        -3.52885
 X          4.97498        0.239955         2.07776
 X          -1.4191         0.09671         3.55635
 X         -2.18147         1.85145        -2.67475
 X          4.38703          2.6019       -0.564405
 X          3.21527        0.397542        -1.24726
 X         0.449097         -1.2913        -3.87874
 X         0.064793         2.82235         1.12746
 X         0.632244        -4.16988         1.41615
 X          4.14202        -4.42145        -4.05925
 X            0.364         3.86501        -1.44191
 X          2.06935          1.3112         -3.4224
 X        -0.080368        -1.17464        -3.44569
 X         0.184113        -4.71428         3.88417
 X         -1.55796        -3.70827        -3.59715
 X          1.66197       -0.505801         1.78903
 X           2.4571        -3.00991         4.12024
 X          4.80948       -0.486787         5.19863
 X          2.81926        -3.89706        -1.43057
 X          4.09741         2.97401         -4.3718
 X           3.6003        -4.38511        -4.34783
 X         -4.28848        -3.98675         2.99043
 X          1.68703        -1.05427         4.74678
 X          -2.1481         1.65595        -1.98047
 X          2.14071         -3.7274         4.17138
 X         -3.18254         2.44192        -4.96168
 X         -2.49028         1.38469        -2.50497
 X         -1.30452         4.64071        -1.86873
 X          -3.1022         1.73875        -5.05878
 X          2.61686         -3.5281         3.70386
 X         -3.95932       -0.294474        -2.28586
 X         -1.25764       -0.157171         4.33933
 X         -1.80761         1.21714        -2.59212
 X         -2.60656        -3.80354         1.08052
 X          2.92199         2.60109         3.42057
 X         -1.91347         4.91246        -1.65541
 X          0.26137          2.6719         4.35423
 X         -4.10046        -3.88551          2.2938
 X          4.55996         2.43983        -4.46781
 X         -1.75896         5.07672        -2.22291
 X         -1.26802         -3.6117        -4.25148
 X          -4.2684       -0.949248        -2.23774
 X         -3.55388          3.6116         1.75398
 X          1.64243         1.51924        -3.06949
 X          -1.8493        -3.35513        -4.15616
 X          3.77108         2.32042        -4.24601
 X         -3.01395         2.14171        -4.35582
 X         0.796955         3.60758       -0.922067
 X         -1.14169       -0.695332         1.60401
 X         -4.79191        -4.10165         2.34514
 X         -3.62964         2.12598        -4.71825
 X         -2.29225        -4.05168        0.353877
 X         -4.61541        -1.29779        0.511012
 X          4.55665        0.802067         2.31724
 X          3.25471        -5.32369         1.30898
 X          -1.7736         1.24564        0.271917
 X          3.12716        -4.38024        -1.60305
 X          4.45141         3.17045        -0.14106
 X          3.90096        -5.05012        -4.15786
 X         -2.22574         1.82034        0.377896
 X         -1.36282        -1.19653          1.1313
 X            5.241         1.03636         2.20944
 X          1.47388        -1.55445       -0.975347
 X          2.97529         1.96958         2.91744
 X         0.232053        -4.33214         1.99014
 X          3.18244        -4.70561        0.921917
 X         -1.29589         -3.0097          -3.853
 X         -4.37367       -0.676244        -2.89626
 X          1.55434       -0.864787         2.25023
 X         -3.22383         3.49703         1.13214
 X         0.508415         3.09303        0.799923
 X           3.8503         0.44915        -1.55573
 X         0.862493         3.41752        -1.75182
 X          1.49601        0.852559        -3.32133
 X          2.03992        -1.22116        -1.21055
 X          3.53352        0.908061        -1.11747
 X         0.241013        -5.30976         4.27556
 X         -4.19039        -1.82856        0.705877
 X         -3.46885        -3.09447        -4.64169
 X         -4.09369        -2.74331        -4.70311
 X          1.88435       -0.953216          4.0608
 X          2.97549        -4.29725       -0.892034
 X        -0.116185        -4.61478         4.53892
 X         -1.73208        0.362993         4.13662
 X          -3.9108         3.49008         1.01243
 X         -4.25289        -1.52212       -0.066009
 X         -1.19905       -0.396467        0.966828
 X         -1.39589          1.8693         0.29222
 X          1.99907        -1.14655          1.7111
 X         0.743822          2.8384         1.45581
 X           4.2861         3.41395        -0.82976
