120
 generated by VMD
 C          -7.3405       -0.026972         0.01285
 C         -7.07584        -1.38996        0.065916
 C         -7.08568        0.723996          -1.185
 C         -7.08034        0.817909         1.14509
 C         -6.65917         2.04505       -0.796797
 C         -6.65526         2.10353        0.649382
 C         -6.56076        0.082481        -2.30101
 C         -6.55012        0.267312         2.30703
 C         -6.53158        -2.06695        -1.08337
 C         -6.52604        -1.97299         1.26279
 C         -6.27608        -1.34049        -2.25089
 C         -6.26493        -1.15531         2.36752
 C         -5.69034          2.7025        -1.54626
 C         -5.68341         2.81949         1.33801
 C         -5.63102        -3.08604       -0.600748
 C         -5.62808        -3.02766        0.857831
 C         -5.55725        0.744989        -3.09142
 C         -5.54251        0.991586          3.0354
 C         -5.12246         2.03379        -2.71216
 C         -5.10957         2.24503         2.55134
 C         -5.08122        -1.58853        -3.01753
 C         -5.06556        -1.34118         3.14488
 C         -4.65889         3.44992       -0.845972
 C         -4.65565         3.50707        0.573503
 C         -4.63572       -0.291924        -3.54845
 C         -4.61639       -0.005313          3.5674
 C         -4.46744        -3.34779        -1.32463
 C         -4.46089        -3.23122         1.59431
 C          -4.1885        -2.57948        -2.56211
 C         -4.17539         -2.3654         2.76448
 C         -3.71766         2.37166        -2.76904
 C          -3.7047          2.5865         2.57189
 C         -3.43514         3.25152        -1.60777
 C         -3.42864         3.36995         1.34273
 C         -3.27926         0.00633        -3.61156
 C         -3.26087        0.296844         3.59908
 C         -3.24365         -3.5606       -0.576885
 C          -3.2405        -3.50329        0.859789
 C         -2.82063          1.3614        -3.19258
 C         -2.80422         1.61349         3.07053
 C         -2.77709         -2.2927        -2.61259
 C         -2.76368        -2.07618         2.78412
 C         -2.35922        -1.01418        -3.10828
 C         -2.34424       -0.761566         3.17339
 C         -2.25589         3.11603        -0.87673
 C         -2.25262         3.17576        0.618322
 C         -2.21874        -2.89525        -1.38352
 C         -2.21162        -2.77503         1.60473
 C         -1.64615         1.18309        -2.41069
 C         -1.63563         1.37217         2.29698
 C         -1.42314         2.01215        -1.28296
 C         -1.41749         2.10787         1.10624
 C         -1.40224       -0.260629        -2.34238
 C         -1.39236       -0.072659         2.34311
 C         -1.36338        -2.10654        -0.65008
 C         -1.36152        -2.04757        0.805022
 C         -1.09729       -0.803599        -1.13571
 C         -1.09612        -0.70979         1.18214
 C          -1.0865         1.39532       -0.062908
 C        -0.946891         0.04018       -0.009377
 C          0.94714       -0.042971        0.003663
 C           1.0868        -1.39807        0.057796
 C          1.09686        0.800413         1.13058
 C          1.09652        0.707377        -1.18719
 C          1.36189         2.10381        0.645883
 C          1.36135         2.04545       -0.809322
 C          1.39473        0.070829        -2.34805
 C          1.39962        0.257997         2.33759
 C          1.41999        -2.11033        -1.11116
 C          1.42296        -2.01437         1.27817
 C          1.63935        -1.37396        -2.30154
 C          1.64401         -1.1854         2.40639
 C           2.2118         2.77392         -1.6071
 C          2.21486         2.89325         1.38106
 C          2.25581        -3.17714       -0.621844
 C          2.25711        -3.11747        0.873396
 C          2.34798        0.760837        -3.17609
 C          2.35409         1.01226         3.10578
 C          2.76616         2.07556        -2.78593
 C          2.77159         2.29131         2.61106
 C          2.80987        -1.61396        -3.07271
 C          2.81683        -1.36298         3.19066
 C          3.24021         3.55983        0.576263
 C          3.23912         3.50279       -0.860436
 C          3.26616       -0.296831        -3.60019
 C          3.27406       -0.007617         3.61082
 C          3.43307         -3.3701        -1.34411
 C          3.43537        -3.25216         1.60638
 C          3.71022        -2.58609        -2.57282
 C          3.71562        -2.37257         2.76831
 C          4.17762         2.36585        -2.76373
 C          4.18282         2.57941         2.56315
 C           4.4608         3.23172        -1.59293
 C          4.46305          3.3481         1.32609
 C           4.6217        0.006543        -3.56625
 C          4.63006        0.291866         3.54988
 C          4.65916        -3.50611       -0.573038
 C          4.66031        -3.44943         0.84656
 C           5.0692         1.34257        -3.14282
 C          5.07568         1.58905         3.01979
 C          5.11495        -2.24336        -2.54975
 C          5.12001        -2.03339         2.71389
 C          5.54744       -0.989718        -3.03291
 C          5.55343       -0.744296         3.09406
 C          5.62705         3.02907       -0.854585
 C          5.62779         3.08736        0.603932
 C          5.68733        -2.81749         -1.3357
 C          5.69028        -2.70138         1.54864
 C          6.26743          1.1574        -2.36358
 C           6.2719         1.34203         2.25504
 C          6.52637         1.97522        -1.25822
 C          6.52853         2.06893         1.08784
 C          6.55363       -0.264804        -2.30268
 C          6.55764       -0.080829         2.30536
 C          6.65774        -2.10102       -0.645348
 C           6.6596        -2.04292        0.800843
 C          7.08247       -0.815084        -1.14023
 C          7.08456       -0.721738         1.19009
 C          7.07488         1.39246       -0.060691
 C          7.34054        0.029768         -0.0074
