15
 generated by VMD
 H          7.02305         7.99195         8.85711
 H          8.36446         8.81133          8.6392
 H          7.67754         7.69315         5.27877
 H          8.72595         6.53413          5.7308
 H          7.84312         7.70453         7.25897
 O          7.86418          7.9948         8.34812
 O          8.04004         7.13854          6.0019
 X          8.00471         7.79228         8.45624
 X          8.41569         6.86092         5.85882
 X          7.42776         8.01199         8.58245
 X          7.81922         7.94249          7.9108
 X          7.88651         7.43061         5.62135
 X          7.83905         6.97343          6.0379
 X          8.08871         7.34825         6.33493
 X          8.09811         8.41958         8.46993
