424

Zn    7.56800    5.31400   -7.51600
Zn    5.33500   -5.28700   -5.28300
Zn    5.33500    7.54700    7.55100
Zn    5.33500   -7.52000    7.55100
Zn   -5.26600    7.54700   -7.51600
Zn    5.33500    5.31400    5.31800
Zn    7.56800   -5.28700   -7.51600
Zn   -5.26600   -7.52000    7.55100
Zn   -5.26600    5.31400   -5.28300
Zn   -5.26600   -5.28700    5.31800
Zn   -7.49900   -5.28700   -7.51600
Zn    7.56800   -7.52000    5.31800
Zn   -7.49900   -7.52000    5.31800
Zn    7.56800   -5.28700    7.55100
Zn    7.56800    7.54700    5.31800
Zn    5.33500   -7.52000   -7.51600
Zn   -5.26600   -7.52000   -7.51600
Zn   -7.49900    7.54700   -5.28300
Zn   -7.49900   -5.28700    7.55100
Zn   -7.49900   -7.52000   -5.28300
Zn   -5.26600   -5.28700   -5.28300
Zn   -7.49900    5.31400    7.55100
Zn   -7.49900    5.31400   -7.51600
Zn   -5.26600    5.31400    5.31800
Zn    5.33500    7.54700   -7.51600
Zn    5.33500   -5.28700    5.31800
Zn    5.33500    5.31400   -5.28300
Zn    7.56800   -7.52000   -5.28300
Zn    7.56800    7.54700   -5.28300
Zn   -7.49900    7.54700    5.31800
Zn    7.56800    5.31400    7.55100
Zn   -5.26600    7.54700    7.55100
O    -6.38300   -6.40400    6.43500
O    -6.38300   -6.40400   -6.40000
O     6.45200    6.43100   -6.40000
O     6.45200   -6.40400    6.43500
O    -6.38300    6.43100    6.43500
O     6.45200   -6.40400   -6.40000
O    -6.38300    6.43100   -6.40000
O     6.45200    6.43100    6.43500
O     3.47200    7.24700    7.25100
O    -7.19900    5.61400   -9.38000
O    -7.19900    3.45100    7.25100
O    -9.36300    7.24700   -5.58300
O     7.26800   -7.22000    3.45500
O     3.47200   -5.58700   -5.58300
O     7.26800    3.45100   -7.21600
O    -5.56600    7.24700    9.41500
O    -3.40300    5.61400   -5.58300
O     7.26800    3.45100    7.25100
O     7.26800   -9.38400    5.61800
O    -7.19900   -9.38400    5.61800
O     9.43200   -5.58700   -7.21600
O    -5.56600    3.45100   -5.58300
O    -5.56600    9.41100   -7.21600
O    -3.40300    7.24700   -7.21600
O     9.43200    5.61400   -7.21600
O     5.63500   -3.42400    5.61800
O     3.47200   -5.58700    5.61800
O    -5.56600   -7.22000   -9.38000
O     7.26800   -5.58700    9.41500
O     7.26800    9.41100   -5.58300
O    -3.40300   -7.22000   -7.21600
O     7.26800    7.24700   -3.42000
O    -7.19900   -5.58700    9.41500
O    -3.40300   -5.58700    5.61800
O     7.26800   -5.58700   -9.38000
O    -5.56600   -3.42400   -5.58300
O     7.26800   -7.22000   -3.42000
O     9.43200    5.61400    7.25100
O     5.63500   -7.22000   -9.38000
O    -5.56600    5.61400   -3.42000
O     5.63500   -5.58700   -3.42000
O    -9.36300    5.61400    7.25100
O     9.43200    7.24700    5.61800
O     7.26800   -9.38400   -5.58300
O    -5.56600    7.24700   -9.38000
O    -5.56600   -5.58700    3.45500
O    -7.19900    9.41100    5.61800
O     7.26800   -3.42400   -7.21600
O    -7.19900   -3.42400   -7.21600
O     5.63500    3.45100    5.61800
O     9.43200   -7.22000    5.61800
O    -7.19900   -3.42400    7.25100
O     9.43200   -7.22000   -5.58300
O    -3.40300   -7.22000    7.25100
O    -9.36300   -5.58700    7.25100
O     7.26800    7.24700    3.45500
O     3.47200    5.61400    5.61800
O    -9.36300    5.61400   -7.21600
O     5.63500    5.61400    3.45500
O    -7.19900    9.41100   -5.58300
O     5.63500   -5.58700    3.45500
O    -9.36300    7.24700    5.61800
O    -5.56600   -9.38400   -7.21600
O    -5.56600   -3.42400    5.61800
O    -5.56600   -7.22000    9.41500
O     5.63500    7.24700    9.41500
O    -7.19900   -7.22000    3.45500
O     5.63500   -7.22000    9.41500
O     7.26800    5.61400    9.41500
O     7.26800    5.61400   -9.38000
O    -7.19900   -5.58700   -9.38000
O    -7.19900    7.24700   -3.42000
O     5.63500    9.41100   -7.21600
O    -7.19900    7.24700    3.45500
O     7.26800   -3.42400    7.25100
O    -7.19900    3.45100   -7.21600
O     5.63500    9.41100    7.25100
O    -5.56600    5.61400    3.45500
O     7.26800    9.41100    5.61800
O     9.43200   -5.58700    7.25100
O    -3.40300    7.24700    7.25100
O    -3.40300    5.61400    5.61800
O     5.63500    3.45100   -5.58300
O    -7.19900    5.61400    9.41500
O    -3.40300   -5.58700   -5.58300
O    -9.36300   -5.58700   -7.21600
O    -9.36300   -7.22000   -5.58300
O     5.63500    7.24700   -9.38000
O    -5.56600    9.41100    7.25100
O     9.43200    7.24700   -5.58300
O     5.63500   -9.38400   -7.21600
O     3.47200    5.61400   -5.58300
O    -5.56600    3.45100    5.61800
O     5.63500    5.61400   -3.42000
O    -7.19900   -7.22000   -3.42000
O    -7.19900   -9.38400   -5.58300
O     5.63500   -9.38400    7.25100
O    -9.36300   -7.22000    5.61800
O     3.47200    7.24700   -7.21600
O     3.47200   -7.22000   -7.21600
O    -5.56600   -5.58700   -3.42000
O     3.47200   -7.22000    7.25100
O     5.63500   -3.42400   -5.58300
O    -5.56600   -9.38400    7.25100
C     6.45200   -9.98500   -6.40000
C    10.03300   -6.40400    6.43500
C     2.87100    6.43100   -6.40000
C    -2.80200    6.43100    6.43500
C     6.45200   -6.40400   -2.81900
C    -6.38300   -6.40400   -2.81900
C    -6.38300    6.43100    2.85400
C     6.45200   -6.40400    2.85400
C    -6.38300   -6.40400   10.01500
C     2.87100   -6.40400    6.43500
C     6.45200    6.43100   -2.81900
C     6.45200   -9.98500    6.43500
C     6.45200    2.85000    6.43500
C    -6.38300    2.85000   -6.40000
C    -2.80200   -6.40400    6.43500
C    -2.80200    6.43100   -6.40000
C     6.45200   10.01200    6.43500
C     2.87100   -6.40400   -6.40000
C     2.87100    6.43100    6.43500
C    -2.80200   -6.40400   -6.40000
C     6.45200    2.85000   -6.40000
C    -6.38300   -2.82300   -6.40000
C    -6.38300    2.85000    6.43500
C     6.45200    6.43100    2.85400
C     6.45200   -6.40400   -9.98100
C    -6.38300   -6.40400    2.85400
C    10.03300    6.43100   -6.40000
C     6.45200   -2.82300    6.43500
C    -6.38300    6.43100   -2.81900
C    -6.38300   -9.98500    6.43500
C    -6.38300    6.43100   10.01500
C     6.45200   -6.40400   10.01500
C    -6.38300   10.01200   -6.40000
C     6.45200    6.43100   10.01500
C    -6.38300   -2.82300    6.43500
C     6.45200    6.43100   -9.98100
C     6.45200   10.01200   -6.40000
C    -6.38300   -6.40400   -9.98100
C    10.03300    6.43100    6.43500
C     6.45200   -2.82300   -6.40000
C    -9.96400   -6.40400   -6.40000
C    -6.38300   10.01200    6.43500
C    -6.38300    6.43100   -9.98100
C    -6.38300   -9.98500   -6.40000
C    -9.96400    6.43100   -6.40000
C    -9.96400    6.43100    6.43500
C    -9.96400   -6.40400    6.43500
C    10.03300   -6.40400   -6.40000
C    11.48800    6.43100   -6.40000
C    -1.34600    6.43100    6.43500
C     1.41500    6.43100   -6.40000
C   -11.41900    6.43100    6.43500
C     1.41500   -6.40400    6.43500
C     6.45200    6.43100  -11.43700
C    -6.38300   11.46700    6.43500
C    -6.38300   -6.40400  -11.43700
C    -6.38300   -1.36700    6.43500
C    -6.38300    6.43100   11.47000
C     6.45200   -6.40400   11.47000
C   -11.41900   -6.40400   -6.40000
C     6.45200   -6.40400    1.39800
C    -6.38300    6.43100    1.39800
C     6.45200    6.43100   -1.36300
C     6.45200   11.46700    6.43500
C     6.45200    1.39400    6.43500
C    -6.38300   11.46700   -6.40000
C     6.45200    6.43100    1.39800
C     6.45200  -11.44000   -6.40000
C    -6.38300    1.39400   -6.40000
C    -1.34600    6.43100   -6.40000
C    11.48800   -6.40400   -6.40000
C    -1.34600   -6.40400    6.43500
C     1.41500    6.43100    6.43500
C     1.41500   -6.40400   -6.40000
C   -11.41900   -6.40400    6.43500
C   -11.41900    6.43100   -6.40000
C     6.45200   11.46700   -6.40000
C     6.45200    1.39400   -6.40000
C    -6.38300   -1.36700   -6.40000
C     6.45200  -11.44000    6.43500
C    -6.38300  -11.44000   -6.40000
C    11.48800   -6.40400    6.43500
C    -6.38300    1.39400    6.43500
C    -6.38300    6.43100  -11.43700
C     6.45200   -6.40400   -1.36300
C     6.45200   -6.40400  -11.43700
C    -6.38300   -6.40400    1.39800
C    -6.38300   -6.40400   11.47000
C     6.45200   -1.36700    6.43500
C     6.45200    6.43100   11.47000
C    -6.38300    6.43100   -1.36300
C    -6.38300  -11.44000    6.43500
C     6.45200   -1.36700   -6.40000
C    11.48800    6.43100    6.43500
C    -1.34600   -6.40400   -6.40000
C    -6.38300   -6.40400   -1.36300
C   -12.12500    7.28000    5.58500
C     0.71000    7.28000   -7.24900
C    -5.53300    7.28000  -12.14300
C     0.71000   -7.25300    7.28400
C     7.30100   -5.55400  -12.14300
C    -0.64100   -7.25300    7.28400
C    -7.23200   -5.55400  -12.14300
C    -5.53300    0.68900    5.58500
C     0.71000    7.28000    7.28400
C     5.60200    5.58100    0.69300
C    -5.53300   -7.25300  -12.14300
C     0.71000   -5.55400   -5.55000
C    12.19400    7.28000    5.58500
C     5.60200   -0.66200    5.58500
C    -7.23200   12.17300    5.58500
C     5.60200    7.28000  -12.14300
C     5.60200   -7.25300   12.17700
C     5.60200   12.17300    7.28400
C    -7.23200   -0.66200   -7.24900
C     7.30100   -5.55400   12.17700
C    -5.53300   -0.66200   -5.55000
C    -5.53300    5.58100   -0.65800
C     7.30100    5.58100   12.17700
C    -7.23200    5.58100  -12.14300
C    12.19400   -5.55400   -7.24900
C    -0.64100    7.28000   -7.24900
C    -7.23200  -12.14600    5.58500
C   -12.12500   -5.55400    7.28400
C    -0.64100    5.58100   -5.55000
C     5.60200   -5.55400    0.69300
C    -0.64100   -5.55400    5.58500
C     7.30100   -0.66200    7.28400
C     5.60200   -7.25300  -12.14300
C     5.60200    0.68900   -5.55000
C    12.19400    5.58100    7.28400
C    -7.23200   -5.55400   12.17700
C     0.71000   -7.25300   -7.24900
C     5.60200    0.68900    5.58500
C     7.30100   -0.66200   -7.24900
C    -7.23200    0.68900   -7.24900
C   -12.12500   -7.25300    5.58500
C    -7.23200   12.17300   -5.55000
C     5.60200   -0.66200   -5.55000
C    -5.53300   12.17300   -7.24900
C     5.60200    7.28000   12.17700
C    12.19400   -7.25300   -5.55000
C     7.30100    7.28000    0.69300
C    -7.23200   -7.25300    0.69300
C    -5.53300    5.58100    0.69300
C    -5.53300   -0.66200    5.58500
C    -5.53300  -12.14600    7.28400
C   -12.12500    7.28000   -5.55000
C     5.60200  -12.14600   -7.24900
C    -5.53300   -5.55400    0.69300
C   -12.12500    5.58100    7.28400
C    -0.64100   -7.25300   -7.24900
C     5.60200   12.17300   -7.24900
C    -0.64100    5.58100    5.58500
C     7.30100    0.68900    7.28400
C    -5.53300   12.17300    7.28400
C     0.71000    5.58100   -5.55000
C    12.19400    5.58100   -7.24900
C    -5.53300   -7.25300   12.17700
C    12.19400   -5.55400    7.28400
C    -7.23200    0.68900    7.28400
C     7.30100    7.28000   -0.65800
C    -0.64100    7.28000    7.28400
C    -7.23200   -0.66200    7.28400
C    12.19400    7.28000   -5.55000
C    12.19400   -7.25300    5.58500
C    -5.53300    7.28000   12.17700
C    -5.53300    0.68900   -5.55000
C     0.71000   -5.55400    5.58500
C     5.60200  -12.14600    7.28400
C   -12.12500   -5.55400   -7.24900
C    -7.23200    7.28000   -0.65800
C    -5.53300  -12.14600   -7.24900
C     5.60200   -5.55400   -0.65800
C     7.30100   12.17300    5.58500
C    -5.53300   -5.55400   -0.65800
C     7.30100   -7.25300   -0.65800
C   -12.12500    5.58100   -7.24900
C     7.30100   12.17300   -5.55000
C     5.60200    5.58100   -0.65800
C     0.71000    5.58100    5.58500
C    -7.23200   -7.25300   -0.65800
C    -7.23200  -12.14600   -5.55000
C     7.30100    5.58100  -12.14300
C    -7.23200    7.28000    0.69300
C    -0.64100   -5.55400   -5.55000
C     7.30100   -7.25300    0.69300
C     7.30100    0.68900   -7.24900
C     7.30100  -12.14600   -5.55000
C    -7.23200    5.58100   12.17700
C     7.30100  -12.14600    5.58500
C   -12.12500   -7.25300   -5.55000
H    5.01700    7.86600  -11.65800
H   11.70900    7.86600    5.00000
H   -7.81800   11.68800   -4.96500
H    5.01700    7.86600   11.69100
H   -7.81800   -1.14700    7.87000
H   11.70900   -4.96900   -7.83500
H    1.19500   -7.83900   -7.83500
H    1.19500    7.86600    7.87000
H    1.19500    4.99600   -4.96500
H   -4.94800   11.68800   -7.83500
H   -4.94800   -1.14700    5.00000
H    5.01700  -11.66100    7.87000
H   -1.12600    7.86600    7.87000
H    7.88700  -11.66100    5.00000
H   -7.81800    4.99600   11.69100
H    1.19500   -7.83900    7.87000
H    5.01700   11.68800   -7.83500
H    5.01700   -1.14700    5.00000
H   -4.94800    1.17400    5.00000
H    1.19500   -4.96900   -4.96500
H    5.01700   -1.14700   -4.96500
H  -11.64000   -4.96900    7.87000
H    7.88700    7.86600    1.17800
H    5.01700  -11.66100   -7.83500
H   -7.81800   11.68800    5.00000
H    5.01700   -4.96900   -1.14300
H    5.01700    1.17400   -4.96500
H   -4.94800   -7.83900   11.69100
H    5.01700    4.99600    1.17800
H   -1.12600   -4.96900    5.00000
H    1.19500    4.99600    5.00000
H    7.88700   11.68800    5.00000
H   -1.12600    7.86600   -7.83500
H   -4.94800    7.86600  -11.65800
H   11.70900    4.99600    7.87000
H    7.88700    7.86600   -1.14300
H    5.01700    1.17400    5.00000
H    7.88700   -7.83900    1.17800
H    7.88700   -4.96900   11.69100
H    1.19500    7.86600   -7.83500
H    7.88700   -1.14700   -7.83500
H    7.88700  -11.66100   -4.96500
H   -7.81800   -4.96900   11.69100
H    7.88700    1.17400    7.87000
H   -1.12600   -4.96900   -4.96500
H   11.70900   -7.83900   -4.96500
H   -7.81800  -11.66100   -4.96500
H  -11.64000   -7.83900    5.00000
H    7.88700    4.99600   11.69100
H    7.88700   -7.83900   -1.14300
H   11.70900    4.99600   -7.83500
H  -11.64000   -7.83900   -4.96500
H  -11.64000    7.86600   -4.96500
H  -11.64000    4.99600    7.87000
H    5.01700   11.68800    7.87000
H   -7.81800    4.99600  -11.65800
H   11.70900   -4.96900    7.87000
H   -7.81800   -7.83900    1.17800
H    7.88700   -1.14700    7.87000
H   -1.12600   -7.83900    7.87000
H   -7.81800  -11.66100    5.00000
H   -1.12600   -7.83900   -7.83500
H   -4.94800    4.99600    1.17800
H   11.70900    7.86600   -4.96500
H   -4.94800   -1.14700   -4.96500
H    5.01700   -4.96900    1.17800
H   -1.12600    4.99600    5.00000
H   -4.94800   11.68800    7.87000
H   -4.94800   -7.83900  -11.65800
H   -7.81800    7.86600   -1.14300
H    7.88700   11.68800   -4.96500
H   -7.81800    7.86600    1.17800
H   -4.94800    1.17400   -4.96500
H   -4.94800   -4.96900   -1.14300
H    5.01700   -7.83900   11.69100
H    7.88700    4.99600  -11.65800
H   -7.81800   -4.96900  -11.65800
H   -4.94800    4.99600   -1.14300
H    7.88700    1.17400   -7.83500
H    5.01700    4.99600   -1.14300
H   -1.12600    4.99600   -4.96500
H    5.01700   -7.83900  -11.65800
H   -7.81800   -7.83900   -1.14300
H   -4.94800    7.86600   11.69100
H   -7.81800    1.17400   -7.83500
H   -4.94800  -11.66100   -7.83500
H   -7.81800    1.17400    7.87000
H    1.19500   -4.96900    5.00000
H  -11.64000    4.99600   -7.83500
H   -7.81800   -1.14700   -7.83500
H   -4.94800   -4.96900    1.17800
H   11.70900   -7.83900    5.00000
H    7.88700   -4.96900  -11.65800
H   -4.94800  -11.66100    7.87000
H  -11.64000    7.86600    5.00000
H  -11.64000   -4.96900   -7.83500
