34

 K     0.14402    -0.24210    -0.10185	0.439194
 O    -3.19126    -0.50104    -1.58118	-0.482771
 H    -3.53688     0.29438    -1.17611	0.259446
 H    -3.57863    -1.21560    -1.07564	0.285627
 O     0.41858    -2.60569    -1.49859	-0.513529
 H     0.83242    -2.06756    -2.17341	0.284222
 H     1.06647    -3.28171    -1.29994	0.277717
 O    -1.96199     2.08657    -0.39464	-0.478696
 H    -1.55695     2.48318     0.37664	0.260303
 H    -2.06047     2.81053    -1.01303	0.267032
 O    -1.01322     0.56547    -2.55974	-0.502133
 H    -1.93959     0.34044    -2.47349	0.300253
 H    -1.01396     1.44134    -2.94585	0.256957
 O     1.45116    -0.62302    -3.28390	-0.483375
 H     0.49467    -0.58632    -3.27905	0.262091
 H     1.72496     0.27701    -3.46056	0.274034
 O     3.21607    -0.36728     0.36920	-0.479813
 H     3.78996    -0.96265    -0.11289	0.255444
 H     2.51012    -0.92565     0.69491	0.261370
 O    -1.34242    -3.68181     0.22723	-0.515655
 H    -1.30412    -2.83323     0.66845	0.248780
 H    -0.95345    -3.52289    -0.63282	0.259899
 O    -1.80308    -1.26536     1.54058	-0.484967
 H    -1.78072    -1.34365     2.49431	0.291596
 H    -2.58903    -0.74952     1.36049	0.272661
 O     1.67555    -2.28929     1.63850	-0.491007
 H     2.49624    -2.09731     2.09220	0.270702
 H     1.60085    -3.24302     1.67089	0.280745
 O     1.28042     0.29653     2.67020	-0.462491
 H     0.48712     0.04238     3.14171	0.256382
 H     1.52453     1.14105     3.04892	0.268972
 O     1.22621     2.49684    -0.34313	-0.470407
 H     1.99547     2.98334    -0.63941	0.286292
 H     1.13458     2.73189     0.58023	0.245126
