128

C1 11.416487815 8.946672612 2.705706775
C1 2.179607816 8.946672612 4.763050761
C1 4.317966105 2.027465993 2.705706775
C1 9.278129526 2.027465993 4.763050761
F1 0.871207984 1.171283658 3.734378768
F1 12.724887647 1.171283658 3.734378768
F1 5.626365938 8.090490277 3.734378768
F1 7.969729693 8.090490277 3.734378768
H2 10.949861323 9.245167145 3.513452942
H2 2.646234308 9.245167145 3.955304594
H2 3.851339613 2.325960526 3.513452942
H2 9.744756018 2.325960526 3.955304594
Ni2 0.000000000 -0.000000000 -0.000000000
Ni2 7.098521709 6.919206619 -0.000000000
H3 1.433929703 9.552656696 4.952458364
H3 12.162165928 9.552656696 2.516299172
H3 5.063644218 2.633450077 2.516299172
H3 8.532451413 2.633450077 4.952458364
Si3 -0.300473894 0.000277144 3.734378768
Si3 6.798047815 6.919483763 3.734378768
F4 -0.300632564 0.000277144 5.481396024
F4 13.896728195 0.000277144 1.987361512
F4 6.797889146 6.919483763 5.481396024
F4 6.798206485 6.919483763 1.987361512
H4 1.838512428 8.038319133 4.626447311
H4 11.757583203 8.038319133 2.842310225
H4 4.659061493 1.119112513 2.842310225
H4 8.937034137 1.119112513 4.626447311
C5 10.221944097 2.033277977 5.908235119
C5 10.472673244 8.952484596 1.560522417
C5 3.123422387 8.952484596 5.908235119
C5 3.374151534 2.033277977 1.560522417
C6 10.202968658 2.703334112 7.133932955
C6 10.491648682 9.622540732 0.334824581
C6 3.104446949 9.622540732 7.133932955
C6 3.393126973 2.703334112 0.334824581
F6 0.871207984 12.667129993 3.734378768
F6 12.724887647 12.667129993 3.734378768
F6 5.626365938 5.747923374 3.734378768
F6 7.969729693 5.747923374 3.734378768
C7 10.912012196 10.567565699 7.320427793
C7 2.684083435 10.567565699 0.148329743
C7 3.813490486 3.648359080 7.320427793
C7 9.782605145 3.648359080 0.148329743
C8 1.948713070 11.912382820 7.260379346
C8 11.647382561 11.912382820 0.208378190
C8 4.548860852 4.993176201 0.208378190
C8 9.047234779 4.993176201 7.260379346
C9 10.818593017 12.763306841 1.111351237
C9 2.777502613 12.763306841 6.357406299
C9 3.720071308 5.844100221 1.111351237
C9 9.876024323 5.844100221 6.357406299
H10 11.405304475 13.264949255 1.717216954
H10 2.190791156 13.264949255 5.751540582
H10 4.306782765 6.345742635 1.717216954
H10 9.289312866 6.345742635 5.751540582
H11 10.217333563 12.194271389 1.635583421
H11 10.477283777 5.275064770 5.833174115
H11 3.118811854 5.275064770 1.635583421
H11 3.378762068 12.194271389 5.833174115
H12 10.288836839 13.390879091 0.575766705
H12 10.405780501 6.471672472 6.892990831
H12 3.190315129 6.471672472 0.575766705
H12 3.307258792 13.390879091 6.892990831
N13 11.322432467 1.275901750 5.872011866
N13 2.273663164 1.275901750 1.596745670
N13 4.223910758 8.195108369 5.872011866
N13 9.372184873 8.195108369 1.596745670
H14 11.562106954 0.758760195 5.201167860
H14 2.033988677 0.758760195 2.267589676
H14 4.463585245 7.677966814 5.201167860
H14 9.132510386 7.677966814 2.267589676
N15 1.494531619 12.397696001 0.453354023
N15 12.101564012 12.397696001 7.015403513
N15 5.003042303 5.478489382 7.015403513
N15 8.593053328 5.478489382 0.453354023
C16 1.077355289 2.646734848 5.805764390
C16 12.518740342 2.646734848 1.662993146
C16 5.420218632 9.565941467 1.662993146
C16 8.175876999 9.565941467 5.805764390
H17 0.992780039 1.839678578 5.258304433
H17 12.603315592 1.839678578 2.210453103
H17 5.504793882 8.758885197 2.210453103
H17 8.091301749 8.758885197 5.258304433
H18 1.673287116 3.283717008 5.360102951
H18 11.922808515 3.283717008 2.108654585
H18 4.824286805 10.202923627 2.108654585
H18 8.771808826 10.202923627 5.360102951
H19 0.193326840 3.054137743 5.925488230
H19 13.402768791 3.054137743 1.543269306
H19 6.304247081 9.973344362 1.543269306
H19 7.291848550 9.973344362 5.925488230
C20  1.639102476 2.288735162 7.131244557
C20  4.858471446 9.207941781 0.337512979
C20  8.737624185 9.207941781 7.131244557
C20 11.956993155 2.288735162 0.337512979
C21 1.654583474 10.298408851 1.056156952
C21 11.941512157 10.298408851 6.412600584
C21 4.842990448 3.379202232 6.412600584
C21 8.753105183 3.379202232 1.056156952
C22 1.276387246 9.030533249 1.745896756
C22 12.319708385 9.030533249 5.722860780
C22 5.221186675 2.111326629 5.722860780
C22 8.374908955 2.111326629 1.745896756
H23 1.128951426 9.209602378 2.699582089
H23 12.467144205 9.209602378 4.769175447
H23 5.368622496 2.290395758 4.769175447
H23 8.227473135 2.290395758 2.699582089
H24 1.998795555 8.376114723 1.644546082
H24 11.597300076 8.376114723 5.824211454
H24 4.498778366 1.456908104 5.824211454
H24 9.097317265 1.456908104 1.644546082
H25 0.454801597 8.674332525 1.348931862
H25 13.141294034 8.674332525 6.119825674
H25 6.042772325 1.755125905 6.119825674
H25 7.553323306 1.755125905 1.348931862
N26 1.591923625 1.428124295 0.453353577
N26 12.004172006 1.428124295 7.015403958
N26 4.905650297 8.347330914 7.015403958
N26 8.690445334 8.347330914 0.453353577
N27 0.962212138 11.430252673 1.220021440
N27 12.633883493 11.430252673 6.248736096
N27 5.535361784 4.511046053 6.248736096
N27 8.060733847 4.511046053 1.220021440
H28 0.266281429 11.528090323 1.749257810
H28 13.329814202 11.528090323 5.719499726
H28 6.231292493 4.608883703 5.719499726
H28 7.364803138 4.608883703 1.749257810
